<?xml version="1.0" encoding="UTF-8"?>

<!-- generated on 2025-07-20 22:28:57.983317 by osmWebWizard.py v1_21_0+0000-d7b3b481c43
<configuration>
    <net-file value="C:\Users\iamth\Sumo\2025-07-07-14-49-41\2025-07-20-22-28-52\osm.net.xml.gz"/>
    <output-trip-file value="C:\Users\iamth\Sumo\2025-07-07-14-49-41\2025-07-20-22-28-52\osm.passenger.trips.xml"/>
    <route-file value="C:\Users\iamth\Sumo\2025-07-07-14-49-41\2025-07-20-22-28-52\osm.passenger.rou.xml"/>
    <prefix value="veh"/>
    <trip-attributes value="departLane=&quot;best&quot;"/>
    <fringe-start-attributes value="departSpeed=&quot;max&quot;"/>
    <vehicle-class value="passenger"/>
    <lanes value="True"/>
    <fringe-factor value="5"/>
    <allow-fringe.min-length value="1000.0"/>
    <via-edge-types value="highway.motorway,highway.motorway_link,highway.trunk_link,highway.primary_link,highway.secondary_link,highway.tertiary_link"/>
    <min-distance value="300.0"/>
    <min-distance.fringe value="10.0"/>
    <remove-loops value="True"/>
    <validate value="True"/>
    <insertion-density value="12.0"/>
</configuration>
-->

<!-- generated on 2025-07-20 22:28:57 by Eclipse SUMO duarouter Version 1.21.0
<duarouterConfiguration xmlns:xsi="http://www.w3.org/2001/XMLSchema-instance" xsi:noNamespaceSchemaLocation="http://sumo.dlr.de/xsd/duarouterConfiguration.xsd">

    <input>
        <net-file value="C:\Users\iamth\Sumo\2025-07-07-14-49-41\2025-07-20-22-28-52\osm.net.xml.gz"/>
        <route-files value="C:\Users\iamth\Sumo\2025-07-07-14-49-41\2025-07-20-22-28-52\osm.passenger.trips.xml"/>
    </input>

    <output>
        <output-file value="C:\Users\iamth\Sumo\2025-07-07-14-49-41\2025-07-20-22-28-52\osm.passenger.trips.xml.tmp"/>
        <alternatives-output value="NUL"/>
        <write-trips value="true"/>
    </output>

    <processing>
        <remove-loops value="true"/>
    </processing>

    <time>
        <begin value="0.0"/>
        <end value="3600.0"/>
    </time>

    <report>
        <no-warnings value="true"/>
        <ignore-errors value="true"/>
        <no-step-log value="true"/>
    </report>

</duarouterConfiguration>
-->

<routes xmlns:xsi="http://www.w3.org/2001/XMLSchema-instance" xsi:noNamespaceSchemaLocation="http://sumo.dlr.de/xsd/routes_file.xsd">
    <vType id="veh_passenger" vClass="passenger"/>
    <trip id="veh0" type="veh_passenger" depart="0.00" departLane="best" departSpeed="max" from="-5649939" to="5637013#11"/>
    <trip id="veh2" type="veh_passenger" depart="56.35" departLane="best" from="5655850#4" to="34018756#6"/>
    <trip id="veh3" type="veh_passenger" depart="84.53" departLane="best" from="-5637013#7" to="-77201866#3"/>
    <trip id="veh4" type="veh_passenger" depart="112.70" departLane="best" from="5650551#5" to="1100872471#2"/>
    <trip id="veh5" type="veh_passenger" depart="140.88" departLane="best" from="5651687" to="-34018975#6"/>
    <trip id="veh6" type="veh_passenger" depart="169.06" departLane="best" from="669608343#1" to="-5650551#6"/>
    <trip id="veh7" type="veh_passenger" depart="197.23" departLane="best" from="-34018756#2" to="669608364#1"/>
    <trip id="veh8" type="veh_passenger" depart="225.41" departLane="best" from="5651687" to="34018756#4"/>
    <trip id="veh9" type="veh_passenger" depart="253.58" departLane="best" from="5654463#0" to="1332435044#3"/>
    <trip id="veh10" type="veh_passenger" depart="281.76" departLane="best" from="5642810#0" to="-5649990#0"/>
    <trip id="veh11" type="veh_passenger" depart="309.94" departLane="best" from="5635548#1" to="5637013#3"/>
    <trip id="veh12" type="veh_passenger" depart="338.11" departLane="best" from="-34018975#7" to="5654463#6"/>
    <trip id="veh13" type="veh_passenger" depart="366.29" departLane="best" from="77201866#0" to="34018756#8"/>
    <trip id="veh14" type="veh_passenger" depart="394.47" departLane="best" from="-34018756#6" to="-5635548#0"/>
    <trip id="veh15" type="veh_passenger" depart="422.64" departLane="best" from="5652724#0" to="-5645346"/>
    <trip id="veh16" type="veh_passenger" depart="450.82" departLane="best" from="5642810#1" to="-126627949#0"/>
    <trip id="veh17" type="veh_passenger" depart="478.99" departLane="best" from="-5650551#3" to="-5643198#1"/>
    <trip id="veh18" type="veh_passenger" depart="507.17" departLane="best" from="-5637013#3" to="669608327#1"/>
    <trip id="veh19" type="veh_passenger" depart="535.35" departLane="best" from="5635548#4" to="-5655850#3"/>
    <trip id="veh20" type="veh_passenger" depart="563.52" departLane="best" from="-669608327#2" to="-669608344#1"/>
    <trip id="veh21" type="veh_passenger" depart="591.70" departLane="best" from="-34018756#7" to="-5643198#0"/>
    <trip id="veh22" type="veh_passenger" depart="619.87" departLane="best" from="5650551#11" to="669608327#3"/>
    <trip id="veh23" type="veh_passenger" depart="648.05" departLane="best" from="-1332435044#3" to="-5654463#6"/>
    <trip id="veh24" type="veh_passenger" depart="676.23" departLane="best" from="669608364#0" to="5651785#0"/>
    <trip id="veh26" type="veh_passenger" depart="732.58" departLane="best" from="-5637013#11" to="1102167001"/>
    <trip id="veh27" type="veh_passenger" depart="760.75" departLane="best" from="-34018756#5" to="-669608343#0"/>
    <trip id="veh28" type="veh_passenger" depart="788.93" departLane="best" from="-5654463#6" to="-5643198#0"/>
    <trip id="veh29" type="veh_passenger" depart="817.11" departLane="best" from="126627948#2" to="-5635548#0"/>
    <trip id="veh30" type="veh_passenger" depart="845.28" departLane="best" from="-5650551#1" to="34018756#8"/>
    <trip id="veh31" type="veh_passenger" depart="873.46" departLane="best" from="5649990#2" to="1100872476#0"/>
    <trip id="veh33" type="veh_passenger" depart="929.81" departLane="best" from="5654463#7" to="669608327#3"/>
    <trip id="veh34" type="veh_passenger" depart="957.99" departLane="best" departSpeed="max" from="5649990#0" to="-34018975#0"/>
    <trip id="veh36" type="veh_passenger" depart="1014.34" departLane="best" from="5646500#2" to="5652724#1"/>
    <trip id="veh38" type="veh_passenger" depart="1070.69" departLane="best" from="5637013#0" to="-5650551#1"/>
    <trip id="veh39" type="veh_passenger" depart="1098.87" departLane="best" from="-34018756#7" to="5637013#11"/>
    <trip id="veh40" type="veh_passenger" depart="1127.04" departLane="best" departSpeed="max" from="-1410572290" to="34018756#6"/>
    <trip id="veh41" type="veh_passenger" depart="1155.22" departLane="best" from="5642810#1" to="5654463#6"/>
    <trip id="veh43" type="veh_passenger" depart="1211.57" departLane="best" from="-5637013#6" to="-34018975#1"/>
    <trip id="veh45" type="veh_passenger" depart="1267.92" departLane="best" from="-34018756#3" to="-669608343#0"/>
    <trip id="veh46" type="veh_passenger" depart="1296.10" departLane="best" from="5643198#2" to="-34018975#7"/>
    <trip id="veh47" type="veh_passenger" depart="1324.28" departLane="best" from="-77201786#1" to="34018756#8"/>
    <trip id="veh48" type="veh_passenger" depart="1352.45" departLane="best" from="-669608327#1" to="-5650551#7"/>
    <trip id="veh49" type="veh_passenger" depart="1380.63" departLane="best" from="5654463#0" to="-5643056#1"/>
    <trip id="veh50" type="veh_passenger" depart="1408.81" departLane="best" from="-5635548#6" to="-669608344#0"/>
    <trip id="veh52" type="veh_passenger" depart="1465.16" departLane="best" from="5643198#0" to="5655850#5"/>
    <trip id="veh53" type="veh_passenger" depart="1493.33" departLane="best" from="-77201786#1" to="5651785#0"/>
    <trip id="veh54" type="veh_passenger" depart="1521.51" departLane="best" from="77201866#3" to="5650551#4"/>
    <trip id="veh55" type="veh_passenger" depart="1549.69" departLane="best" from="669608364#0" to="5655850#6"/>
    <trip id="veh56" type="veh_passenger" depart="1577.86" departLane="best" from="113909426#1" to="-5637013#0"/>
    <trip id="veh57" type="veh_passenger" depart="1606.04" departLane="best" from="77201866#0" to="669608327#3"/>
    <trip id="veh58" type="veh_passenger" depart="1634.21" departLane="best" from="-34018975#6" to="-5649990#0"/>
    <trip id="veh59" type="veh_passenger" depart="1662.39" departLane="best" from="-1332435044#1" to="1410572290"/>
    <trip id="veh60" type="veh_passenger" depart="1690.57" departLane="best" from="126627949#0" to="5650604#0"/>
    <trip id="veh61" type="veh_passenger" depart="1718.74" departLane="best" from="-34018975#6" to="-669608344#1"/>
    <trip id="veh62" type="veh_passenger" depart="1746.92" departLane="best" from="-34018756#0" to="-5635548#1"/>
    <trip id="veh63" type="veh_passenger" depart="1775.09" departLane="best" departSpeed="max" from="34018975#0" to="34018975#7"/>
    <trip id="veh64" type="veh_passenger" depart="1803.27" departLane="best" from="-5643056#1" to="-34018975#0"/>
    <trip id="veh65" type="veh_passenger" depart="1831.45" departLane="best" from="5655850#3" to="-5643056#0"/>
    <trip id="veh66" type="veh_passenger" depart="1859.62" departLane="best" departSpeed="max" from="34018975#0" to="34018756#4"/>
    <trip id="veh68" type="veh_passenger" depart="1915.98" departLane="best" from="-5643056#2" to="-5655850#3"/>
    <trip id="veh69" type="veh_passenger" depart="1944.15" departLane="best" from="-5635548#9" to="-5649990#1"/>
    <trip id="veh70" type="veh_passenger" depart="1972.33" departLane="best" departSpeed="max" from="-1410572290" to="-669608344#0"/>
    <trip id="veh71" type="veh_passenger" depart="2000.50" departLane="best" from="-5654463#7" to="34018975#6"/>
    <trip id="veh72" type="veh_passenger" depart="2028.68" departLane="best" from="34018975#2" to="77201786#2"/>
    <trip id="veh73" type="veh_passenger" depart="2056.86" departLane="best" from="5635548#3" to="1100872471#2"/>
    <trip id="veh74" type="veh_passenger" depart="2085.03" departLane="best" from="5650551#7" to="-5649990#1"/>
    <trip id="veh75" type="veh_passenger" depart="2113.21" departLane="best" from="5635548#6" to="669608327#0"/>
    <trip id="veh76" type="veh_passenger" depart="2141.38" departLane="best" departSpeed="max" from="-5649939" to="34018756#2"/>
    <trip id="veh77" type="veh_passenger" depart="2169.56" departLane="best" from="5643056#4" to="-5635548#6"/>
    <trip id="veh78" type="veh_passenger" depart="2197.74" departLane="best" from="34018975#7" to="-5643198#0"/>
    <trip id="veh79" type="veh_passenger" depart="2225.91" departLane="best" from="5652724#1" to="34018756#7"/>
    <trip id="veh81" type="veh_passenger" depart="2282.26" departLane="best" from="34018975#8" to="-5643056#5"/>
    <trip id="veh83" type="veh_passenger" depart="2338.62" departLane="best" from="-669608364#1" to="-1102167001"/>
    <trip id="veh84" type="veh_passenger" depart="2366.79" departLane="best" departSpeed="max" from="-1410572290" to="5652724#6"/>
    <trip id="veh85" type="veh_passenger" depart="2394.97" departLane="best" from="5656706#1" to="113909426#2"/>
    <trip id="veh86" type="veh_passenger" depart="2423.14" departLane="best" from="-5650551#13" to="5654463#4"/>
    <trip id="veh87" type="veh_passenger" depart="2451.32" departLane="best" from="5655850#6" to="-5635548#8"/>
    <trip id="veh88" type="veh_passenger" depart="2479.50" departLane="best" from="5649990#2" to="5652724#7"/>
    <trip id="veh89" type="veh_passenger" depart="2507.67" departLane="best" from="5654463#1" to="669608364#2"/>
    <trip id="veh90" type="veh_passenger" depart="2535.85" departLane="best" from="5650551#5" to="5652724#6"/>
    <trip id="veh91" type="veh_passenger" depart="2564.03" departLane="best" from="1102167001" to="5637013#8"/>
    <trip id="veh92" type="veh_passenger" depart="2592.20" departLane="best" from="5650551#2" to="5651785#1"/>
    <trip id="veh93" type="veh_passenger" depart="2620.38" departLane="best" from="5650551#5" to="-5643198#1"/>
    <trip id="veh94" type="veh_passenger" depart="2648.55" departLane="best" from="77201866#2" to="5650441"/>
    <trip id="veh95" type="veh_passenger" depart="2676.73" departLane="best" from="1102167001" to="-5635548#2"/>
    <trip id="veh97" type="veh_passenger" depart="2733.08" departLane="best" from="5635548#0" to="-5655850#5"/>
    <trip id="veh98" type="veh_passenger" depart="2761.26" departLane="best" departSpeed="max" from="669608343#0" to="-34018975#0"/>
    <trip id="veh99" type="veh_passenger" depart="2789.43" departLane="best" from="-34018756#5" to="-669608343#0"/>
    <trip id="veh100" type="veh_passenger" depart="2817.61" departLane="best" from="5643198#2" to="-5650551#10"/>
    <trip id="veh101" type="veh_passenger" depart="2845.79" departLane="best" from="34018975#1" to="1100872471#1"/>
    <trip id="veh102" type="veh_passenger" depart="2873.96" departLane="best" from="5643198#2" to="5635548#7"/>
    <trip id="veh104" type="veh_passenger" depart="2930.31" departLane="best" from="-5654463#5" to="34018756#3"/>
    <trip id="veh105" type="veh_passenger" depart="2958.49" departLane="best" from="5643056#5" to="-5649990#1"/>
    <trip id="veh106" type="veh_passenger" depart="2986.67" departLane="best" from="-5650551#13" to="-5656706#1"/>
    <trip id="veh107" type="veh_passenger" depart="3014.84" departLane="best" from="-669608327#1" to="-5649990#0"/>
    <trip id="veh108" type="veh_passenger" depart="3043.02" departLane="best" from="5656706#0" to="34018756#4"/>
    <trip id="veh109" type="veh_passenger" depart="3071.20" departLane="best" from="-5650551#10" to="113909426#3"/>
    <trip id="veh111" type="veh_passenger" depart="3127.55" departLane="best" from="5635548#3" to="-669608344#3"/>
    <trip id="veh113" type="veh_passenger" depart="3183.90" departLane="best" from="-34018756#0" to="1100872471#2"/>
    <trip id="veh114" type="veh_passenger" depart="3212.08" departLane="best" from="5637013#0" to="5637013#11"/>
    <trip id="veh115" type="veh_passenger" depart="3240.25" departLane="best" from="-5635548#9" to="-126627948#0"/>
    <trip id="veh116" type="veh_passenger" depart="3268.43" departLane="best" from="5652724#4" to="34018756#3"/>
    <trip id="veh117" type="veh_passenger" depart="3296.60" departLane="best" from="669608343#1" to="34018756#6"/>
    <trip id="veh118" type="veh_passenger" depart="3324.78" departLane="best" from="126627948#0" to="-5642810#1"/>
    <trip id="veh119" type="veh_passenger" depart="3352.96" departLane="best" from="5635548#4" to="1100872471#1"/>
    <trip id="veh120" type="veh_passenger" depart="3381.13" departLane="best" from="5646500#0" to="-5643198#2"/>
    <trip id="veh121" type="veh_passenger" depart="3409.31" departLane="best" from="-5635548#10" to="-669608344#0"/>
    <trip id="veh122" type="veh_passenger" depart="3437.48" departLane="best" from="5643198#0" to="5650551#8"/>
    <trip id="veh123" type="veh_passenger" depart="3465.66" departLane="best" from="77201866#1" to="5649939"/>
    <trip id="veh124" type="veh_passenger" depart="3493.84" departLane="best" from="5635548#8" to="77201786#2"/>
    <trip id="veh125" type="veh_passenger" depart="3522.01" departLane="best" departSpeed="max" from="34018975#0" to="669608327#4"/>
    <trip id="veh126" type="veh_passenger" depart="3550.19" departLane="best" from="5655850#3" to="34018756#3"/>
    <trip id="veh127" type="veh_passenger" depart="3578.37" departLane="best" from="5643056#5" to="-77201866#3"/>
</routes>
