<?xml version="1.0" encoding="UTF-8"?>

<!-- generated on 2025-07-20 22:28:57.983317 by osmWebWizard.py v1_21_0+0000-d7b3b481c43
<configuration>
    <net-file value="C:\Users\iamth\Sumo\2025-07-07-14-49-41\2025-07-20-22-28-52\osm.net.xml.gz"/>
    <output-trip-file value="C:\Users\iamth\Sumo\2025-07-07-14-49-41\2025-07-20-22-28-52\osm.passenger.trips.xml"/>
    <route-file value="C:\Users\iamth\Sumo\2025-07-07-14-49-41\2025-07-20-22-28-52\osm.passenger.rou.xml"/>
    <prefix value="veh"/>
    <trip-attributes value="departLane=&quot;best&quot;"/>
    <fringe-start-attributes value="departSpeed=&quot;max&quot;"/>
    <vehicle-class value="passenger"/>
    <lanes value="True"/>
    <fringe-factor value="5"/>
    <allow-fringe.min-length value="1000.0"/>
    <via-edge-types value="highway.motorway,highway.motorway_link,highway.trunk_link,highway.primary_link,highway.secondary_link,highway.tertiary_link"/>
    <min-distance value="300.0"/>
    <min-distance.fringe value="10.0"/>
    <remove-loops value="True"/>
    <validate value="True"/>
    <insertion-density value="12.0"/>
</configuration>
-->

<!-- generated on 2025-07-20 22:28:57 by Eclipse SUMO duarouter Version 1.21.0
<duarouterConfiguration xmlns:xsi="http://www.w3.org/2001/XMLSchema-instance" xsi:noNamespaceSchemaLocation="http://sumo.dlr.de/xsd/duarouterConfiguration.xsd">

    <input>
        <net-file value="C:\Users\iamth\Sumo\2025-07-07-14-49-41\2025-07-20-22-28-52\osm.net.xml.gz"/>
        <route-files value="C:\Users\iamth\Sumo\2025-07-07-14-49-41\2025-07-20-22-28-52\osm.passenger.trips.xml"/>
    </input>

    <output>
        <output-file value="C:\Users\iamth\Sumo\2025-07-07-14-49-41\2025-07-20-22-28-52\osm.passenger.trips.xml.tmp"/>
        <alternatives-output value="NUL"/>
        <write-trips value="true"/>
    </output>

    <processing>
        <remove-loops value="true"/>
    </processing>

    <time>
        <begin value="0.0"/>
        <end value="3600.0"/>
    </time>

    <report>
        <no-warnings value="true"/>
        <ignore-errors value="true"/>
        <no-step-log value="true"/>
    </report>

</duarouterConfiguration>
-->
<routes xmlns:xsi="http://www.w3.org/2001/XMLSchema-instance" xsi:noNamespaceSchemaLocation="http://sumo.dlr.de/xsd/routes_file.xsd">
    <!-- Vehicles, persons and containers (sorted by depart) -->
    <flow id="f_0" begin="0.00" from="ClintonEB0" to="MapleEB1" via="BroadwayEB0 BroadwayEB1" end="3600.00" vehsPerHour="5400"/>
    <flow id="f_1" begin="0.00" from="EllsworthSB0" to="DivisionSB1" via="BroadwaySB0 BroadwaySB1" end="3600.00" vehsPerHour="5400"/>
    <!-- <flow id="f_2" begin="0.00" from="Node1_2_EB" to="-E36" via="E38 E39" end="3600.00" vehsPerHour="1800"/> -->
</routes>