<?xml version="1.0" encoding="UTF-8"?>

<!-- generated on 2025-07-22 08:18:29 by Eclipse SUMO sumo Version 1.21.0
-->

<sumoConfiguration xmlns:xsi="http://www.w3.org/2001/XMLSchema-instance" xsi:noNamespaceSchemaLocation="http://sumo.dlr.de/xsd/sumoConfiguration.xsd">

    <input>
        <net-file value="osm.net.xml.gz"/>
        <route-files value="osm_final.rou.xml"/>
        <additional-files value="additional/bus_stops.add.xml"/>
    </input>

</sumoConfiguration>
