<?xml version="1.0" encoding="UTF-8"?>

<!-- generated on 2025-07-26 22:29:24 by Eclipse SUMO netedit Version 1.23.1
-->

<routes xmlns:xsi="http://www.w3.org/2001/XMLSchema-instance" xsi:noNamespaceSchemaLocation="http://sumo.dlr.de/xsd/routes_file.xsd">
    <!-- Vehicles, persons and containers (sorted by depart) -->
    <flow id="f_0" begin="0.00" from="MapleWB0" to="WoodlawnWB1" end="3600.00" vehsPerHour="500"/>
    <flow id="f_1" begin="0.00" from="-34018756#2" to="BroadwaySB1" end="3600.00" vehsPerHour="1200"/>
    <flow id="f_2" begin="0.00" from="WoodlawnEB1" to="MapleEB0" end="3600.00" vehsPerHour="800"/>
    <flow id="f_3" begin="0.00" from="BroadwayNB1" to="34018756#2" end="3600.00" vehsPerHour="1000"/>
</routes>
