<?xml version="1.0" encoding="UTF-8"?>

<!-- generated on 2025-07-21 15:57:42 by Eclipse SUMO netedit Version 1.21.0
<neteditConfiguration xmlns:xsi="http://www.w3.org/2001/XMLSchema-instance" xsi:noNamespaceSchemaLocation="http://sumo.dlr.de/xsd/neteditConfiguration.xsd">

    <input>
        <sumo-net-file value="C:\Users\iamth\OneDrive\Desktop\Research\SUMO\RL_Research_Final_SIM\Saratoga_Simulation\network\pedestrian_network.net.xml"/>
    </input>

    <output>
        <output-file value="C:\Users\iamth\OneDrive\Desktop\Research\SUMO\RL_Research_Final_SIM\Saratoga_Simulation\network\pedestrian_network.net.xml"/>
        <output.street-names value="true"/>
    </output>

    <processing>
        <geometry.min-radius.fix.railways value="false"/>
        <geometry.max-grade.fix value="false"/>
        <offset.disable-normalization value="true"/>
        <lefthand value="0"/>
    </processing>

    <junctions>
        <no-internal-links value="false"/>
        <no-turnarounds value="true"/>
        <junctions.corner-detail value="5"/>
        <junctions.limit-turn-speed value="5.50"/>
        <rectangular-lane-cut value="0"/>
    </junctions>

    <pedestrian>
        <walkingareas value="1"/>
    </pedestrian>

</neteditConfiguration>
-->

<net version="1.20" junctionCornerDetail="5" walkingareas="true" limitTurnSpeed="5.50" xmlns:xsi="http://www.w3.org/2001/XMLSchema-instance" xsi:noNamespaceSchemaLocation="http://sumo.dlr.de/xsd/net_file.xsd">

    <location netOffset="8214242.07,-5324288.16" convBoundary="0.00,0.00,842.49,684.47" origBoundary="-73.789792,43.080863,-73.782224,43.085354" projParameter="+proj=merc +a=6378137 +b=6378137 +lat_ts=0.0 +lon_0=0.0 +x_0=0.0 +y_0=0 +k=1.0 +units=m +nadgrids=@null +wktext +no_defs"/>

    <type id="highway.cycleway" priority="1" numLanes="1" speed="5.56" allow="bicycle" oneway="0" width="2.00"/>
    <type id="highway.footway" priority="1" numLanes="1" speed="2.78" allow="pedestrian" oneway="1" width="2.00"/>
    <type id="highway.path" priority="1" numLanes="1" speed="5.56" allow="pedestrian bicycle" oneway="0" width="2.00"/>
    <type id="highway.residential" priority="3" numLanes="1" speed="13.89" disallow="tram rail_urban rail rail_electric rail_fast ship container cable_car subway aircraft wheelchair scooter drone" oneway="0"/>
    <type id="highway.secondary" priority="11" numLanes="1" speed="27.78" disallow="tram rail_urban rail rail_electric rail_fast ship container cable_car subway aircraft wheelchair scooter drone" oneway="0"/>
    <type id="highway.service" priority="1" numLanes="1" speed="5.56" allow="pedestrian delivery bicycle" oneway="0"/>
    <type id="highway.steps" priority="1" numLanes="1" speed="1.39" allow="pedestrian" oneway="1" width="2.00"/>
    <type id="highway.tertiary" priority="10" numLanes="1" speed="22.22" disallow="tram rail_urban rail rail_electric rail_fast ship container cable_car subway aircraft wheelchair scooter drone" oneway="0"/>
    <type id="highway.trunk" priority="13" numLanes="2" speed="27.78" disallow="pedestrian bicycle tram rail_urban rail rail_electric rail_fast ship container cable_car subway aircraft wheelchair scooter drone" oneway="0"/>

    <edge id=":10005501585_w0" function="walkingarea">
        <lane id=":10005501585_w0_0" index="0" allow="pedestrian" speed="2.78" length="4.22" width="2.00" shape="647.44,167.74 648.32,165.94 646.68,164.97 646.13,164.49 645.76,164.01 645.56,163.53 645.54,163.05 643.57,163.80 643.60,164.74 643.36,165.23 642.95,165.72 642.37,166.22 641.63,166.73 642.67,168.43 643.35,168.16 643.56,168.21 643.68,168.39 643.71,168.69 643.66,169.12 645.62,169.50 646.04,168.23 646.31,167.85 646.64,167.64 647.02,167.61"/>
    </edge>
    <edge id=":10005501595_w0" function="walkingarea">
        <lane id=":10005501595_w0_0" index="0" allow="pedestrian" speed="2.78" length="4.03" width="2.00" shape="651.71,45.23 653.68,44.86 653.69,44.01 653.84,43.68 654.09,43.41 654.44,43.22 654.89,43.08 654.49,41.12 653.65,41.12 653.32,40.98 653.06,40.73 652.87,40.39 652.74,39.95 650.78,40.32"/>
    </edge>
    <edge id=":10005501597_0" function="internal">
        <lane id=":10005501597_0_0" index="0" allow="pedestrian delivery bicycle" speed="5.56" length="5.57" shape="656.71,85.20 651.19,84.48"/>
    </edge>
    <edge id=":10005501597_1" function="internal">
        <lane id=":10005501597_1_0" index="0" allow="pedestrian delivery bicycle" speed="3.65" length="1.44" shape="656.71,85.20 655.62,84.25"/>
    </edge>
    <edge id=":10005501597_4" function="internal">
        <lane id=":10005501597_4_0" index="0" allow="pedestrian delivery bicycle" speed="3.65" length="3.23" shape="655.62,84.25 655.33,83.40 655.83,82.66 657.12,82.02"/>
    </edge>
    <edge id=":10005501597_2" function="internal">
        <lane id=":10005501597_2_0" index="0" allow="pedestrian delivery bicycle" speed="5.56" length="5.57" shape="651.60,81.31 657.12,82.02"/>
    </edge>
    <edge id=":10005501597_3" function="internal">
        <lane id=":10005501597_3_0" index="0" allow="pedestrian delivery bicycle" speed="3.65" length="1.44" shape="651.60,81.31 652.69,82.26"/>
    </edge>
    <edge id=":10005501597_5" function="internal">
        <lane id=":10005501597_5_0" index="0" allow="pedestrian delivery bicycle" speed="3.65" length="3.23" shape="652.69,82.26 652.98,83.10 652.48,83.84 651.19,84.48"/>
    </edge>
    <edge id=":10005501597_w0" function="walkingarea">
        <lane id=":10005501597_w0_0" index="0" allow="pedestrian" speed="2.78" length="5.69" width="6.40" shape="653.03,88.11 655.03,88.09 655.19,87.28 655.39,87.01 655.68,86.84 656.05,86.77 656.50,86.78 657.33,80.44 656.01,80.07 655.55,79.76 655.22,79.37 655.02,78.91 654.95,78.35 652.95,78.37 652.79,79.18 652.59,79.45 652.30,79.62 651.93,79.70 651.47,79.68 650.66,86.03 651.97,86.39 652.43,86.70 652.76,87.09 652.96,87.55"/>
    </edge>
    <edge id=":10005501600_w0" function="walkingarea">
        <lane id=":10005501600_w0_0" index="0" allow="pedestrian" speed="2.78" length="0.27" width="2.00" shape="726.19,100.64 728.16,100.27 728.10,99.98 726.14,100.39"/>
    </edge>
    <edge id=":10005501601_w0" function="walkingarea">
        <lane id=":10005501601_w0_0" index="0" allow="pedestrian" speed="2.78" length="0.30" width="2.00" shape="726.57,102.65 728.53,102.27 728.48,101.98 726.51,102.35"/>
    </edge>
    <edge id=":10005501602_w0" function="walkingarea">
        <lane id=":10005501602_w0_0" index="0" allow="pedestrian" speed="2.78" length="4.08" width="2.00" shape="737.92,141.84 737.34,139.92 736.51,140.00 736.19,139.88 735.93,139.66 735.74,139.33 735.62,138.89 733.65,139.27 733.67,140.25 733.54,140.63 733.30,140.95 732.97,141.20 732.54,141.38 733.12,143.30"/>
    </edge>
    <edge id=":10005501603_w0" function="walkingarea">
        <lane id=":10005501603_w0_0" index="0" allow="pedestrian" speed="2.78" length="3.41" width="2.00" shape="724.13,90.90 726.09,90.51 727.29,88.74 726.89,86.78 726.04,86.78 725.71,86.63 725.45,86.39 725.26,86.05 725.13,85.61 723.17,85.99"/>
    </edge>
    <edge id=":10005501607_w0" function="walkingarea">
        <lane id=":10005501607_w0_0" index="0" allow="pedestrian" speed="2.78" length="4.06" width="2.00" shape="780.58,74.33 782.55,73.99 781.68,69.05 779.71,69.40 779.68,70.27 779.51,70.61 779.24,70.88 778.87,71.10 778.39,71.26 778.86,73.21 779.70,73.17 780.02,73.31 780.27,73.55 780.46,73.89"/>
    </edge>
    <edge id=":10005501609_w0" function="walkingarea">
        <lane id=":10005501609_w0_0" index="0" allow="pedestrian" speed="2.78" length="4.03" width="2.00" shape="766.56,77.72 768.51,77.27 768.48,76.41 768.62,76.07 768.85,75.80 769.19,75.59 769.62,75.44 769.15,73.49 764.29,74.67 764.76,76.61 765.61,76.58 765.94,76.71 766.21,76.95 766.42,77.28"/>
    </edge>
    <edge id=":10005501614_w0" function="walkingarea">
        <lane id=":10005501614_w0_0" index="0" allow="pedestrian" speed="2.78" length="3.70" width="2.00" shape="789.00,123.89 790.97,123.56 792.22,121.97 792.07,119.97 790.14,118.62 788.17,118.96"/>
    </edge>
    <edge id=":10005501615_0" function="internal">
        <lane id=":10005501615_0_0" index="0" disallow="tram rail_urban rail rail_electric rail_fast ship container cable_car subway aircraft wheelchair scooter drone" speed="13.41" length="5.04" shape="787.34,135.01 792.15,133.51"/>
    </edge>
    <edge id=":10005501615_w0" function="walkingarea">
        <lane id=":10005501615_w0_0" index="0" allow="pedestrian" speed="2.78" length="4.55" width="3.20" shape="789.78,137.54 791.67,136.90 791.57,136.06 791.67,135.72 791.88,135.44 792.20,135.21 792.63,135.03 791.68,131.98 790.81,132.07 790.46,131.96 790.17,131.75 789.93,131.43 789.75,131.00 787.85,131.60 787.94,132.45 787.82,132.79 787.61,133.07 787.29,133.30 786.86,133.48 787.82,136.53 788.69,136.44 789.04,136.56 789.34,136.78 789.59,137.10"/>
    </edge>
    <edge id=":10005501616_w0" function="walkingarea">
        <lane id=":10005501616_w0_0" index="0" allow="pedestrian" speed="2.78" length="4.00" width="2.00" shape="786.88,128.53 788.78,127.92 788.69,127.07 788.80,126.73 789.01,126.45 789.33,126.22 789.76,126.05 789.03,124.05 788.11,124.82 787.13,125.08 786.06,125.29 785.08,125.45 784.39,125.60 784.97,127.51 785.82,127.43 786.17,127.55 786.46,127.77 786.69,128.10"/>
    </edge>
    <edge id=":10005512441_w0" function="walkingarea">
        <lane id=":10005512441_w0_0" index="0" allow="pedestrian" speed="2.78" length="3.55" width="2.00" shape="710.09,17.61 712.04,17.14 711.22,15.38 710.60,14.82 709.85,14.48 708.94,14.36 707.90,14.46 708.27,16.43 709.12,16.44 709.46,16.59 709.73,16.83 709.94,17.17"/>
    </edge>
    <edge id=":10005512442_w0" function="walkingarea">
        <lane id=":10005512442_w0_0" index="0" allow="pedestrian" speed="2.78" length="0.30" width="2.00" shape="707.51,16.57 707.15,14.60 706.85,14.66 707.22,16.62"/>
    </edge>
    <edge id=":10005512443_w0" function="walkingarea">
        <lane id=":10005512443_w0_0" index="0" allow="pedestrian" speed="2.78" length="2.67" width="2.00" shape="703.74,17.28 703.37,15.32 700.45,15.84 701.84,18.57 702.05,17.84 702.37,17.63 702.78,17.48 703.25,17.38"/>
    </edge>
    <edge id=":10005512444_w0" function="walkingarea">
        <lane id=":10005512444_w0_0" index="0" allow="pedestrian" speed="2.78" length="3.61" width="2.00" shape="669.45,40.13 669.04,38.17 668.20,38.18 667.87,38.03 667.61,37.79 667.42,37.44 667.30,37.00 665.33,37.37 665.33,38.24 665.18,38.57 664.93,38.84 664.59,39.04 664.14,39.17 664.54,41.13"/>
    </edge>
    <edge id=":10013471760_0" function="internal">
        <lane id=":10013471760_0_0" index="0" allow="pedestrian delivery bicycle" speed="5.56" length="5.06" shape="629.79,8.45 624.80,9.35"/>
    </edge>
    <edge id=":10013471760_1" function="internal">
        <lane id=":10013471760_1_0" index="0" allow="pedestrian delivery bicycle" speed="3.65" length="4.67" shape="629.79,8.45 628.46,7.88 627.93,7.16 628.18,6.30 629.22,5.30"/>
    </edge>
    <edge id=":10013471760_2" function="internal">
        <lane id=":10013471760_2_0" index="0" allow="pedestrian delivery bicycle" speed="5.56" length="5.06" shape="624.24,6.19 629.22,5.30"/>
    </edge>
    <edge id=":10013471760_3" function="internal">
        <lane id=":10013471760_3_0" index="0" allow="pedestrian delivery bicycle" speed="3.65" length="4.67" shape="624.24,6.19 625.56,6.77 626.09,7.49 625.84,8.35 624.80,9.35"/>
    </edge>
    <edge id=":10013471760_w0" function="walkingarea">
        <lane id=":10013471760_w0_0" index="0" allow="pedestrian" speed="2.78" length="5.09" width="6.40" shape="630.07,10.03 628.94,3.73 623.96,4.62 625.08,10.92 625.86,10.95 626.17,11.10 626.41,11.35 626.59,11.70 626.72,12.14 628.79,12.28 628.76,11.16 628.91,10.74 629.18,10.41 629.57,10.17"/>
    </edge>
    <edge id=":10013471762_0" function="internal">
        <lane id=":10013471762_0_0" index="0" allow="pedestrian delivery bicycle" speed="5.56" length="5.59" shape="637.95,47.24 632.50,48.45"/>
    </edge>
    <edge id=":10013471762_1" function="internal">
        <lane id=":10013471762_1_0" index="0" allow="pedestrian delivery bicycle" speed="3.65" length="1.44" shape="637.95,47.24 636.61,46.72"/>
    </edge>
    <edge id=":10013471762_4" function="internal">
        <lane id=":10013471762_4_0" index="0" allow="pedestrian delivery bicycle" speed="3.65" length="3.23" shape="636.61,46.72 636.04,46.02 636.26,45.16 637.26,44.12"/>
    </edge>
    <edge id=":10013471762_2" function="internal">
        <lane id=":10013471762_2_0" index="0" allow="pedestrian delivery bicycle" speed="5.56" length="5.59" shape="631.80,45.32 637.26,44.12"/>
    </edge>
    <edge id=":10013471762_3" function="internal">
        <lane id=":10013471762_3_0" index="0" allow="pedestrian delivery bicycle" speed="3.65" length="1.44" shape="631.80,45.32 633.15,45.84"/>
    </edge>
    <edge id=":10013471762_5" function="internal">
        <lane id=":10013471762_5_0" index="0" allow="pedestrian delivery bicycle" speed="3.65" length="3.23" shape="633.15,45.84 633.71,46.54 633.49,47.41 632.50,48.45"/>
    </edge>
    <edge id=":10013471762_w0" function="walkingarea">
        <lane id=":10013471762_w0_0" index="0" allow="pedestrian" speed="2.78" length="5.67" width="6.40" shape="635.20,51.42 637.10,50.59 637.14,49.74 637.30,49.41 637.54,49.14 637.87,48.94 638.30,48.80 636.91,42.55 635.75,42.64 635.31,42.52 634.97,42.30 634.73,41.97 634.58,41.53 632.62,41.92 632.63,42.80 632.48,43.14 632.24,43.41 631.90,43.62 631.46,43.76 632.84,50.01 634.04,49.96 634.48,50.13 634.82,50.43 635.06,50.86"/>
    </edge>
    <edge id=":10013471766_w0" function="walkingarea">
        <lane id=":10013471766_w0_0" index="0" allow="pedestrian" speed="2.78" length="3.78" width="2.00" shape="629.42,176.44 628.38,174.73 627.69,174.99 627.48,174.93 627.35,174.75 627.31,174.44 627.35,174.01 625.38,173.67 624.92,175.53 624.63,176.25 624.30,176.84 623.93,177.30 623.52,177.61 624.51,179.35"/>
    </edge>
    <edge id=":10013471767_w0" function="walkingarea">
        <lane id=":10013471767_w0_0" index="0" allow="pedestrian" speed="2.78" length="4.03" width="2.00" shape="530.59,210.58 532.53,210.10 532.46,209.25 532.59,208.90 532.83,208.61 533.18,208.37 533.65,208.18 533.05,206.27 532.21,206.36 531.87,206.25 531.59,206.03 531.36,205.71 531.19,205.28 529.27,205.86"/>
    </edge>
    <edge id=":10013471771_0" function="internal">
        <lane id=":10013471771_0_0" index="0" allow="pedestrian delivery bicycle" speed="5.56" length="5.62" shape="641.78,72.70 636.42,74.40"/>
    </edge>
    <edge id=":10013471771_1" function="internal">
        <lane id=":10013471771_1_0" index="0" allow="pedestrian delivery bicycle" speed="3.65" length="1.44" shape="641.78,72.70 640.40,72.29"/>
    </edge>
    <edge id=":10013471771_4" function="internal">
        <lane id=":10013471771_4_0" index="0" allow="pedestrian delivery bicycle" speed="3.65" length="3.23" shape="640.40,72.29 639.78,71.65 639.92,70.77 640.83,69.65"/>
    </edge>
    <edge id=":10013471771_2" function="internal">
        <lane id=":10013471771_2_0" index="0" allow="pedestrian delivery bicycle" speed="5.56" length="5.64" shape="635.45,71.35 640.83,69.65"/>
    </edge>
    <edge id=":10013471771_3" function="internal">
        <lane id=":10013471771_3_0" index="0" allow="pedestrian delivery bicycle" speed="3.65" length="1.44" shape="635.45,71.35 636.84,71.75"/>
    </edge>
    <edge id=":10013471771_5" function="internal">
        <lane id=":10013471771_5_0" index="0" allow="pedestrian delivery bicycle" speed="3.65" length="3.23" shape="636.84,71.75 637.46,72.39 637.32,73.27 636.42,74.40"/>
    </edge>
    <edge id=":10013471771_w0" function="walkingarea">
        <lane id=":10013471771_w0_0" index="0" allow="pedestrian" speed="2.78" length="5.76" width="6.40" shape="638.48,76.96 640.50,76.71 640.83,75.53 641.17,75.05 641.61,74.64 642.17,74.31 642.85,74.04 640.93,67.94 640.12,68.02 639.81,67.90 639.58,67.67 639.42,67.34 639.32,66.89 637.34,67.13 637.17,68.26 636.85,68.74 636.38,69.16 635.75,69.52 634.96,69.83 636.91,75.92 637.84,75.80 638.15,75.91 638.36,76.14 638.47,76.49"/>
    </edge>
    <edge id=":10013471772_0" function="internal">
        <lane id=":10013471772_0_0" index="0" allow="pedestrian delivery bicycle" speed="5.56" length="5.06" shape="505.55,116.03 500.72,117.56"/>
    </edge>
    <edge id=":10013471772_1" function="internal">
        <lane id=":10013471772_1_0" index="0" allow="pedestrian delivery bicycle" speed="3.65" length="1.44" shape="505.55,116.03 504.16,115.63"/>
    </edge>
    <edge id=":10013471772_4" function="internal">
        <lane id=":10013471772_4_0" index="0" allow="pedestrian delivery bicycle" speed="3.65" length="3.23" shape="504.16,115.63 503.54,114.99 503.68,114.10 504.58,112.98"/>
    </edge>
    <edge id=":10013471772_2" function="internal">
        <lane id=":10013471772_2_0" index="0" allow="pedestrian delivery bicycle" speed="5.56" length="5.06" shape="499.75,114.51 504.58,112.98"/>
    </edge>
    <edge id=":10013471772_3" function="internal">
        <lane id=":10013471772_3_0" index="0" allow="pedestrian delivery bicycle" speed="3.65" length="1.44" shape="499.75,114.51 501.14,114.91"/>
    </edge>
    <edge id=":10013471772_5" function="internal">
        <lane id=":10013471772_5_0" index="0" allow="pedestrian delivery bicycle" speed="3.65" length="3.23" shape="501.14,114.91 501.76,115.55 501.62,116.44 500.72,117.56"/>
    </edge>
    <edge id=":10013471772_w0" function="walkingarea">
        <lane id=":10013471772_w0_0" index="0" allow="pedestrian" speed="2.78" length="5.41" width="6.40" shape="503.08,120.07 504.99,119.48 504.91,118.62 505.03,118.27 505.25,117.98 505.59,117.74 506.03,117.55 504.09,111.45 503.25,111.55 502.91,111.44 502.63,111.22 502.40,110.90 502.22,110.47 500.31,111.06 500.39,111.92 500.27,112.27 500.04,112.56 499.71,112.80 499.27,112.99 501.21,119.09 502.05,118.99 502.39,119.10 502.67,119.32 502.90,119.64"/>
    </edge>
    <edge id=":10013471785_w0" function="walkingarea">
        <lane id=":10013471785_w0_0" index="0" allow="pedestrian" speed="2.78" length="4.19" width="2.00" shape="624.47,179.37 623.47,177.64 621.94,178.47 621.37,178.72 620.79,178.92 620.08,179.15 619.12,179.44 619.71,181.35 620.50,181.27 620.77,181.39 620.96,181.62 621.07,181.96 621.09,182.40 623.09,182.47 623.28,181.08 623.48,180.52 623.74,180.05 624.07,179.67"/>
    </edge>
    <edge id=":10013908712_w0" function="walkingarea">
        <lane id=":10013908712_w0_0" index="0" allow="pedestrian" speed="2.78" length="1.43" width="2.00" shape="769.32,11.22 771.28,10.86 770.86,9.79 770.51,9.45 770.07,9.25 769.54,9.19 768.91,9.26 769.32,11.22"/>
    </edge>
    <edge id=":10013967124_0" function="internal">
        <lane id=":10013967124_0_0" index="0" allow="pedestrian delivery bicycle" speed="3.65" length="4.67" shape="705.47,129.66 705.92,128.29 706.58,127.69 707.46,127.86 708.55,128.80"/>
    </edge>
    <edge id=":10013967126_0" function="internal">
        <lane id=":10013967126_0_0" index="0" allow="pedestrian delivery bicycle" speed="5.56" length="5.14" shape="711.59,151.46 710.20,146.50"/>
    </edge>
    <edge id=":10013967126_1" function="internal">
        <lane id=":10013967126_1_0" index="0" allow="pedestrian delivery bicycle" speed="3.65" length="1.44" shape="711.59,151.46 712.04,150.09"/>
    </edge>
    <edge id=":10013967126_4" function="internal">
        <lane id=":10013967126_4_0" index="0" allow="pedestrian delivery bicycle" speed="3.65" length="3.23" shape="712.04,150.09 712.70,149.49 713.58,149.66 714.67,150.60"/>
    </edge>
    <edge id=":10013967126_2" function="internal">
        <lane id=":10013967126_2_0" index="0" allow="pedestrian delivery bicycle" speed="5.56" length="5.16" shape="713.29,145.64 714.67,150.60"/>
    </edge>
    <edge id=":10013967126_3" function="internal">
        <lane id=":10013967126_3_0" index="0" allow="pedestrian delivery bicycle" speed="3.65" length="1.44" shape="713.29,145.64 712.84,147.01"/>
    </edge>
    <edge id=":10013967126_5" function="internal">
        <lane id=":10013967126_5_0" index="0" allow="pedestrian delivery bicycle" speed="3.65" length="3.23" shape="712.84,147.01 712.18,147.61 711.30,147.44 710.20,146.50"/>
    </edge>
    <edge id=":10013967126_w0" function="walkingarea">
        <lane id=":10013967126_w0_0" index="0" allow="pedestrian" speed="2.78" length="5.45" width="6.40" shape="710.04,151.88 716.21,150.18 716.13,149.24 716.25,148.86 716.48,148.55 716.81,148.30 717.25,148.12 716.67,146.21 715.82,146.29 715.49,146.18 715.21,145.96 714.99,145.63 714.83,145.20 708.66,146.93 708.75,147.86 708.63,148.23 708.40,148.53 708.07,148.78 707.63,148.96 708.21,150.87 709.05,150.79 709.39,150.91 709.66,151.13 709.88,151.45"/>
    </edge>
    <edge id=":10013967160_0" function="internal">
        <lane id=":10013967160_0_0" index="0" allow="pedestrian delivery bicycle" speed="3.65" length="4.67" shape="564.88,117.16 564.46,118.54 563.81,119.15 562.93,119.00 561.82,118.08"/>
    </edge>
    <edge id=":10013967161_0" function="internal">
        <lane id=":10013967161_0_0" index="0" allow="pedestrian delivery bicycle" speed="5.02" length="5.02" shape="557.24,102.89 556.66,101.64 555.82,100.88 554.72,100.62 553.36,100.84"/>
    </edge>
    <edge id=":10013967161_1" function="internal">
        <lane id=":10013967161_1_0" index="0" allow="pedestrian delivery bicycle" speed="5.56" length="10.16" shape="557.24,102.89 556.81,100.12 557.35,97.87 558.87,96.15 561.35,94.95"/>
    </edge>
    <edge id=":10013967161_2" function="internal">
        <lane id=":10013967161_2_0" index="0" allow="pedestrian delivery bicycle" speed="3.65" length="4.67" shape="557.24,102.89 557.66,101.51 558.31,100.89 559.19,101.05 560.30,101.96"/>
    </edge>
    <edge id=":10013967161_3" function="internal">
        <lane id=":10013967161_3_0" index="0" allow="pedestrian delivery bicycle" speed="5.09" length="5.06" shape="562.32,98.00 561.09,98.59 560.35,99.45 560.09,100.58 560.30,101.96"/>
    </edge>
    <edge id=":10013967161_4" function="internal">
        <lane id=":10013967161_4_0" index="0" allow="pedestrian delivery bicycle" speed="5.56" length="9.40" shape="562.32,98.00 553.36,100.84"/>
    </edge>
    <edge id=":10013967161_5" function="internal">
        <lane id=":10013967161_5_0" index="0" allow="pedestrian delivery bicycle" speed="3.65" length="4.67" shape="562.32,98.00 560.93,97.60 560.31,96.96 560.45,96.07 561.35,94.95"/>
    </edge>
    <edge id=":10013967161_6" function="internal">
        <lane id=":10013967161_6_0" index="0" allow="pedestrian delivery bicycle" speed="5.56" length="9.40" shape="552.39,97.79 561.35,94.95"/>
    </edge>
    <edge id=":10013967161_7" function="internal">
        <lane id=":10013967161_7_0" index="0" allow="pedestrian delivery bicycle" speed="5.56" length="10.23" shape="552.39,97.79 555.16,97.33 557.40,97.87 559.12,99.42 560.30,101.96"/>
    </edge>
    <edge id=":10013967161_8" function="internal">
        <lane id=":10013967161_8_0" index="0" allow="pedestrian delivery bicycle" speed="3.65" length="4.67" shape="552.39,97.79 553.78,98.19 554.40,98.83 554.26,99.72 553.36,100.84"/>
    </edge>
    <edge id=":10013967161_w0" function="walkingarea">
        <lane id=":10013967161_w0_0" index="0" allow="pedestrian" speed="2.78" length="6.88" width="6.40" shape="555.71,103.35 561.83,101.50 561.74,100.60 561.85,100.24 562.06,99.94 562.38,99.70 562.80,99.52 560.87,93.42 551.91,96.27 553.84,102.37 554.69,102.27 555.02,102.39 555.31,102.60 555.53,102.92"/>
    </edge>
    <edge id=":10016233794_w0" function="walkingarea">
        <lane id=":10016233794_w0_0" index="0" allow="pedestrian" speed="2.78" length="4.02" width="2.00" shape="509.05,139.50 510.96,138.92 510.88,138.07 511.00,137.73 511.21,137.44 511.54,137.21 511.97,137.03 511.37,135.12 510.53,135.21 510.19,135.10 509.90,134.88 509.67,134.56 509.50,134.13 507.59,134.72"/>
    </edge>
    <edge id=":10016233796_w0" function="walkingarea">
        <lane id=":10016233796_w0_0" index="0" allow="pedestrian" speed="2.78" length="0.10" width="2.00" shape="573.31,132.62 575.23,132.02 573.31,132.62"/>
    </edge>
    <edge id=":10016233797_w0" function="walkingarea">
        <lane id=":10016233797_w0_0" index="0" allow="pedestrian" speed="2.78" length="0.30" width="2.00" shape="575.39,139.32 577.30,138.73 577.21,138.44 575.30,139.03"/>
    </edge>
    <edge id=":10016233798_w0" function="walkingarea">
        <lane id=":10016233798_w0_0" index="0" allow="pedestrian" speed="2.78" length="4.00" width="2.00" shape="577.11,144.69 579.01,144.06 578.91,143.22 579.01,142.88 579.23,142.59 579.54,142.36 579.97,142.18 579.36,140.28 578.51,140.37 578.17,140.26 577.89,140.05 577.66,139.73 577.48,139.30 575.57,139.90"/>
    </edge>
    <edge id=":10016233799_w0" function="walkingarea">
        <lane id=":10016233799_w0_0" index="0" allow="pedestrian" speed="2.78" length="0.30" width="2.00" shape="580.45,142.03 579.86,140.12 579.57,140.21 580.17,142.12"/>
    </edge>
    <edge id=":10016233800_w0" function="walkingarea">
        <lane id=":10016233800_w0_0" index="0" allow="pedestrian" speed="2.78" length="0.30" width="2.00" shape="590.23,139.01 589.65,137.10 589.36,137.19 589.95,139.10"/>
    </edge>
    <edge id=":10016233801_w0" function="walkingarea">
        <lane id=":10016233801_w0_0" index="0" allow="pedestrian" speed="2.78" length="4.34" width="2.00" shape="636.48,122.46 634.51,122.11 634.10,123.02 633.72,123.40 633.21,123.75 632.59,124.06 631.85,124.32 632.43,126.23 633.19,126.16 633.44,126.28 633.59,126.50 633.64,126.84 633.60,127.28 635.57,127.62"/>
    </edge>
    <edge id=":10016233802_w0" function="walkingarea">
        <lane id=":10016233802_w0_0" index="0" allow="pedestrian" speed="2.78" length="4.03" width="2.00" shape="521.93,181.81 523.84,181.22 523.76,180.37 523.88,180.03 524.10,179.75 524.42,179.51 524.85,179.33 524.25,177.43 523.41,177.52 523.07,177.40 522.79,177.19 522.56,176.87 522.39,176.44 520.47,177.02"/>
    </edge>
    <edge id=":10016233804_w0" function="walkingarea">
        <lane id=":10016233804_w0_0" index="0" allow="pedestrian" speed="2.78" length="0.30" width="2.00" shape="579.19,151.35 581.10,150.77 581.01,150.48 579.10,151.07"/>
    </edge>
    <edge id=":10016233805_w0" function="walkingarea">
        <lane id=":10016233805_w0_0" index="0" allow="pedestrian" speed="2.78" length="0.28" width="2.00" shape="577.21,144.98 579.12,144.39 579.02,144.10 577.13,144.73"/>
    </edge>
    <edge id=":10016883182_w0" function="walkingarea">
        <lane id=":10016883182_w0_0" index="0" allow="pedestrian" speed="2.78" length="1.60" width="2.00" shape="793.71,121.85 793.54,119.85 790.56,120.09 790.71,122.08"/>
    </edge>
    <edge id=":10016883199_0" function="internal">
        <lane id=":10016883199_0_0" index="0" disallow="tram rail_urban rail rail_electric rail_fast ship container cable_car subway aircraft wheelchair scooter drone" speed="13.41" length="6.40" shape="618.81,187.65 624.92,185.74"/>
    </edge>
    <edge id=":10016883199_w0" function="walkingarea">
        <lane id=":10016883199_w0_0" index="0" allow="pedestrian" speed="2.78" length="5.27" width="3.20" shape="625.40,187.27 624.44,184.21 623.65,184.29 623.38,184.17 623.20,183.94 623.09,183.60 623.07,183.16 621.07,183.09 620.73,184.40 620.34,184.95 619.82,185.41 619.15,185.81 618.33,186.12 619.28,189.18 620.06,189.09 620.32,189.21 620.49,189.44 620.57,189.78 620.56,190.22 622.55,190.43 622.98,189.03 623.38,188.46 623.93,187.98 624.60,187.58"/>
    </edge>
    <edge id=":10016883201_0" function="internal">
        <lane id=":10016883201_0_0" index="0" disallow="tram rail_urban rail rail_electric rail_fast ship container cable_car subway aircraft wheelchair scooter drone" speed="13.41" length="5.00" shape="530.46,215.24 535.24,213.74"/>
    </edge>
    <edge id=":10016883201_w0" function="walkingarea">
        <lane id=":10016883201_w0_0" index="0" allow="pedestrian" speed="2.78" length="4.52" width="3.20" shape="532.82,217.75 534.73,217.15 534.64,216.31 534.75,215.97 534.97,215.68 535.29,215.45 535.72,215.27 534.76,212.22 533.92,212.31 533.58,212.19 533.29,211.98 533.06,211.66 532.88,211.23 530.97,211.83 531.06,212.67 530.95,213.01 530.73,213.30 530.41,213.53 529.99,213.71 530.94,216.76 531.79,216.67 532.13,216.79 532.41,217.00 532.64,217.32"/>
    </edge>
    <edge id=":10016883211_0" function="internal">
        <lane id=":10016883211_0_0" index="0" allow="pedestrian delivery bicycle" speed="5.79" length="9.45" shape="634.44,3.25 634.43,0.98 635.50,-0.34 637.65,-0.71 640.89,-0.11"/>
    </edge>
    <edge id=":10016883211_1" function="internal">
        <lane id=":10016883211_1_0" index="0" disallow="tram rail_urban rail rail_electric rail_fast ship container cable_car subway aircraft wheelchair scooter drone" speed="3.65" length="4.67" shape="634.44,3.25 634.99,1.92 635.69,1.37 636.56,1.61 637.58,2.63"/>
    </edge>
    <edge id=":10016883211_2" function="internal">
        <lane id=":10016883211_2_0" index="0" allow="pedestrian delivery bicycle" speed="3.63" length="2.84" shape="640.02,2.97 639.20,2.66 638.36,2.33 637.74,2.23 637.58,2.63"/>
    </edge>
    <edge id=":10016883211_w0" function="walkingarea">
        <lane id=":10016883211_w0_0" index="0" allow="pedestrian" speed="2.78" length="4.34" width="6.40" shape="633.30,5.76 639.58,4.50 641.33,-1.65 638.31,-2.24 635.96,-2.10 634.29,-1.23 633.29,0.37 632.96,2.70"/>
    </edge>
    <edge id=":10016883212_0" function="internal">
        <lane id=":10016883212_0_0" index="0" allow="pedestrian delivery bicycle" speed="5.11" length="5.08" shape="635.89,10.47 635.43,9.20 634.65,8.36 633.55,7.98 632.13,8.03"/>
    </edge>
    <edge id=":10016883212_1" function="internal">
        <lane id=":10016883212_1_0" index="0" disallow="tram rail_urban rail rail_electric rail_fast ship container cable_car subway aircraft wheelchair scooter drone" speed="13.41" length="7.16" shape="635.89,10.47 634.48,3.45"/>
    </edge>